1000.0000     300.0000     14.000000
10.000000     300.006100   14.000000  -14.172632   -1.304349
35.000000     300.029100   14.000000  -14.073836   -1.110442
100.000000    300.108300   14.000000  -13.801396   -0.614322
200.000000    300.257500   14.000000  -13.340052    0.123840
300.000000    300.427500   14.000000  -12.829396    0.829013
400.000000    300.612500   14.000000  -12.271862    1.497602
500.000000    300.809500   14.000000  -11.669931    2.126590
600.000000    301.016700   14.000000  -11.026487    2.713049
700.000000    301.232700   14.000000  -10.344507    3.254318
800.000000    301.456600   14.000000   -9.627324    3.747688
900.000000    301.687700   14.000000   -8.877918    4.190944
1000.000000   301.925300   14.000000   -8.100119    4.581957
1100.000000   302.168900   14.000000   -7.297582    4.919178
1200.000000   302.418100   14.000000   -6.473739    5.200835
1300.000000   302.672500   13.538230   -5.632600    5.425335
1400.000000   302.931900   13.012494   -4.778189    5.592198
1500.000000   303.196000   12.506029   -3.914253    5.700368
1600.000000   303.464500   12.018045   -3.045126    5.749185
1700.000000   303.737200   11.547747   -2.174519    5.738578
1800.000000   304.014000   11.094458   -1.306816    5.668691
1900.000000   304.294700   10.657535   -0.445820    5.539719
2000.000000   304.579100   10.236333    0.404395    5.352213
2100.000000   304.867100    9.830262    1.239841    5.107126
2200.000000   305.158400    9.438754    2.056484    4.805769
2300.000000   305.453200    9.061300    2.850827    4.449189
2400.000000   305.751200    8.697392    3.617187    4.073256
2500.000000   306.052200    8.346541    4.383816    3.697190
2600.000000   306.356400    8.008314    5.150175    3.321257
2700.000000   306.663400    7.682274    5.916714    2.945235
2800.000000   306.973300    7.367979    6.683074    2.569302
2900.000000   307.286000    7.065029    7.449703    2.193237
3000.000000   307.601400    6.773075    8.216063    1.817303
3100.000000   307.919400    6.491694    8.982602    1.441282
3200.000000   308.240100    6.220579    9.748961    1.065348
3300.000000   308.563200    5.959360   10.515501    0.689327
3400.000000   308.888700    5.707712   11.281950    0.313349
3500.000000   309.216700    5.465350   12.048489   -0.062672
3600.000000   309.547100    5.231919   12.814849   -0.438606
3700.000000   309.879700    5.007156   13.581478   -0.814671
3800.000000   310.214600    4.790772   14.347837   -1.190604
3900.000000   310.551700    4.582475   15.114376   -1.566626
4000.000000   310.891000    4.382025   15.880736   -1.942559
4100.000000   311.232400    4.189150   16.647365   -2.318625
4200.000000   311.575900    4.003582   17.413725   -2.694558
4300.000000   311.921400    3.825114   18.180264   -3.070580
4400.000000   312.269000    3.653495   18.946713   -3.446557
4500.000000   312.618500    3.488501   19.713252   -3.822579
4600.000000   312.970000    3.329912   20.479612   -4.198512
4700.000000   313.323400    3.177519   21.246151   -4.574533
4800.000000   313.678600    3.031107   22.012600   -4.950511
4900.000000   314.035800    2.890485   22.779140   -5.326532
5000.000000   314.394700    2.755452   23.545499   -5.702466
5100.000000   314.755500    2.625825   24.312038   -6.078487
5200.000000   315.118100    2.501423   25.078488   -6.454465
5300.000000   315.482300    2.382055   25.845027   -6.830486
5400.000000   315.848400    2.267572   26.611387   -7.206420
5500.000000   316.216100    2.157790   27.377926   -7.582441
5600.000000   316.585400    2.052551   28.144375   -7.958418
5700.000000   316.956500    1.951697   28.910914   -8.334440
5800.000000   317.329100    1.855075   29.677274   -8.710373
5900.000000   317.703400    1.762540   30.443813   -9.086395
6000.000000   318.079300    1.673951   31.210262   -9.462372
6100.000000   318.456700    1.589160   31.976712   -9.838350
6200.000000   318.835700    1.508036   32.743161  -10.214327
6300.000000   319.216200    1.430447   33.509700  -10.590349
6400.000000   319.598200    1.356266   34.276060  -10.966282
6500.000000   319.981800    1.285369   35.042689  -11.342347
6600.000000   320.366800    1.217633   35.809049  -11.718281
6700.000000   320.753200    1.152943   36.575588  -12.094302
6800.000000   321.141100    1.091186   37.341947  -12.470236
6900.000000   321.530500    1.032253   38.108486  -12.846257
7000.000000   321.921200    0.976036   38.874936  -13.222235
7100.000000   322.313400    0.922432   38.874936  -13.222235
7200.000000   322.706900    0.871341   38.874936  -13.222235
7300.000000   323.101800    0.822666   38.874936  -13.222235
7400.000000   323.498000    0.776311   38.874936  -13.222235
7500.000000   323.895600    0.732186   38.874936  -13.222235
7600.000000   324.294600    0.690203   38.874936  -13.222235
7700.000000   324.694800    0.650276   38.874936  -13.222235
7800.000000   325.096300    0.612320   38.874936  -13.222235
7900.000000   325.499100    0.576257   38.874936  -13.222235
8000.000000   325.903300    0.542009   38.874936  -13.222235
8100.000000   326.308600    0.509499   38.874936  -13.222235
8200.000000   326.715200    0.478655   38.874936  -13.222235
8300.000000   327.123100    0.449407   38.874936  -13.222235
8400.000000   327.532200    0.421687   38.874936  -13.222235
8500.000000   327.942500    0.395429   38.874936  -13.222235
8600.000000   328.354000    0.370568   38.874936  -13.222235
8700.000000   328.766800    0.347044   38.874936  -13.222235
8800.000000   329.180700    0.324797   38.874936  -13.222235
8900.000000   329.595800    0.303770   38.874936  -13.222235
9000.000000   330.012000    0.283907   38.874936  -13.222235
9100.000000   330.429400    0.265156   38.874936  -13.222235
9200.000000   330.848000    0.247464   38.874936  -13.222235
9300.000000   331.267700    0.230782   38.874936  -13.222235
9400.000000   331.688500    0.215062   38.874936  -13.222235
9500.000000   332.110400    0.200260   38.874936  -13.222235
9600.000000   332.533500    0.186329   38.874936  -13.222235
9700.000000   332.957700    0.173227   38.874936  -13.222235
9800.000000   333.382900    0.160914   38.874936  -13.222235
9900.000000   333.809300    0.149350   38.874936  -13.222235
10000.000000  334.236700    0.138497   38.874936  -13.222235
10100.000000  334.665200    0.128319   38.874936  -13.222235
10200.000000  335.094800    0.118781   38.874936  -13.222235
10300.000000  335.525400    0.109850   38.874936  -13.222235
10400.000000  335.957000    0.101493   38.874936  -13.222235
10500.000000  336.389700    0.093680   38.874936  -13.222235
10600.000000  336.823400    0.086381   38.874936  -13.222235
10700.000000  337.258200    0.079568   38.874936  -13.222235
10800.000000  337.693900    0.073214   38.874936  -13.222235
10900.000000  338.130700    0.067294   38.874936  -13.222235
11000.000000  338.568500    0.061782   38.874936  -13.222235
11100.000000  339.007300    0.056656   38.874936  -13.222235
11200.000000  339.447100    0.051892   38.874936  -13.222235
11300.000000  339.887800    0.047470   38.874936  -13.222235
11400.000000  340.329500    0.043368   38.874936  -13.222235
11500.000000  340.772200    0.039568   38.874936  -13.222235
11600.000000  341.215900    0.036051   38.874936  -13.222235
11700.000000  341.660500    0.032799   38.874936  -13.222235
11800.000000  342.106000    0.029796   38.874936  -13.222235
11900.000000  342.552600    0.027026   38.874936  -13.222235
12000.000000  343.000000    0.024473   38.874936  -13.222235
12100.000000  344.574400    0.022000   38.874936  -13.222235
12200.000000  346.156000    0.020000   38.874936  -13.222235
12300.000000  347.744800    0.019000   38.874936  -13.222235
12400.000000  349.341000    0.018000   38.874936  -13.222235
12500.000000  350.944500    0.017000   38.874936  -13.222235
12600.000000  352.555300    0.016000   38.874936  -13.222235
12700.000000  354.173600    0.015000   38.874936  -13.222235
12800.000000  355.799300    0.014000   38.874936  -13.222235
12900.000000  357.432400    0.013000   38.874936  -13.222235
13000.000000  359.073000    0.012000   38.874936  -13.222235
13100.000000  360.721200    0.011000   38.874936  -13.222235
13200.000000  362.376900    0.010000   38.874936  -13.222235
13300.000000  364.040200    0.009000   38.874936  -13.222235
13400.000000  365.711200    0.008000   38.874936  -13.222235
13500.000000  367.389800    0.007000   38.874936  -13.222235
13600.000000  369.076100    0.006000   38.874936  -13.222235
13700.000000  370.770200    0.005000   38.874936  -13.222235
13800.000000  372.472100    0.004000   38.874936  -13.222235
13900.000000  374.181700    0.003110   38.874936  -13.222235
14000.000000  375.899200    0.003110   38.874936  -13.222235
14100.000000  377.624600    0.003110   38.874936  -13.222235
14200.000000  379.357900    0.003110   38.874936  -13.222235
14300.000000  381.099200    0.003110   38.874936  -13.222235
14400.000000  382.848400    0.003110   38.874936  -13.222235
14500.000000  384.605700    0.003110   38.874936  -13.222235
14600.000000  386.371100    0.003110   38.874936  -13.222235
14700.000000  388.144500    0.003110   38.874936  -13.222235
14800.000000  389.926100    0.003110   38.874936  -13.222235
14900.000000  391.715900    0.003110   38.874936  -13.222235
15000.000000  393.513900    0.003110   38.874936  -13.222235
15100.000000  395.320200    0.003110   38.874936  -13.222235
15200.000000  397.134700    0.003110   38.874936  -13.222235
15300.000000  398.957500    0.003110   38.874936  -13.222235
15400.000000  400.788700    0.003110   38.874936  -13.222235
15500.000000  402.628400    0.003110   38.874936  -13.222235
15600.000000  404.476400    0.003110   38.874936  -13.222235
15700.000000  406.333000    0.003110   38.874936  -13.222235
15800.000000  408.198100    0.003110   38.874936  -13.222235
15900.000000  410.071700    0.003110   38.874936  -13.222235
16000.000000  411.954000    0.003110   38.874936  -13.222235
16100.000000  413.844900    0.003110   38.874936  -13.222235
16200.000000  415.744400    0.003110   38.874936  -13.222235
16300.000000  417.652700    0.003110   38.874936  -13.222235
16400.000000  419.569800    0.003110   38.874936  -13.222235
16500.000000  421.495600    0.003110   38.874936  -13.222235
16600.000000  423.430300    0.003110   38.874936  -13.222235
16700.000000  425.373800    0.003110   38.874936  -13.222235
16800.000000  427.326300    0.003110   38.874936  -13.222235
16900.000000  429.287800    0.003110   38.874936  -13.222235
17000.000000  431.258200    0.003110   38.874936  -13.222235
17100.000000  433.237700    0.003110   38.874936  -13.222235
17200.000000  435.226300    0.003110   38.874936  -13.222235
17300.000000  437.224000    0.003110   38.874936  -13.222235
17400.000000  439.230800    0.003110   38.874936  -13.222235
17500.000000  441.246900    0.003110   38.874936  -13.222235
17600.000000  443.272300    0.003110   38.874936  -13.222235
17700.000000  445.306900    0.003110   38.874936  -13.222235
17800.000000  447.350900    0.003110   38.874936  -13.222235
17900.000000  449.404200    0.003110   38.874936  -13.222235
18000.000000  451.467000    0.003110   38.874936  -13.222235
18100.000000  453.539300    0.003110   38.874936  -13.222235
18200.000000  455.621000    0.003110   38.874936  -13.222235
18300.000000  457.712300    0.003110   38.874936  -13.222235
18400.000000  459.813300    0.003110   38.874936  -13.222235
18500.000000  461.923800    0.003110   38.874936  -13.222235
18600.000000  464.044100    0.003110   38.874936  -13.222235
18700.000000  466.174000    0.003110   38.874936  -13.222235
18800.000000  468.313800    0.003110   38.874936  -13.222235
18900.000000  470.463300    0.003110   38.874936  -13.222235
19000.000000  472.622800    0.003110   38.874936  -13.222235
19100.000000  474.792200    0.003110   38.874936  -13.222235
19200.000000  476.971500    0.003110   38.874936  -13.222235
19300.000000  479.160800    0.003110   38.874936  -13.222235
19400.000000  481.360100    0.003110   38.874936  -13.222235
19500.000000  483.569600    0.003110   38.874936  -13.222235
19600.000000  485.789200    0.003110   38.874936  -13.222235
19700.000000  488.019000    0.003110   38.874936  -13.222235
19800.000000  490.259000    0.003110   38.874936  -13.222235
19900.000000  492.509300    0.003110   38.874936  -13.222235
20000.000000  494.769900    0.003110   38.874936  -13.222235
20500.000000  506.229700    0.003110   38.874936  -13.222235
21000.000000  517.954900    0.003110   38.874936  -13.222235
21500.000000  529.951700    0.003110   38.874936  -13.222235
22000.000000  542.226300    0.003110   38.874936  -13.222235
22500.000000  554.785300    0.003110   38.874936  -13.222235
23000.000000  567.635100    0.003110   38.874936  -13.222235
23500.000000  580.782600    0.003110   38.874936  -13.222235
24000.000000  594.234600    0.003110   38.874936  -13.222235
24500.000000  607.998100    0.003110   38.874936  -13.222235
25000.000000  622.080500    0.003110   38.874936  -13.222235
25500.000000  636.489000    0.003110   38.874936  -13.222235
26000.000000  651.231200    0.003110   38.874936  -13.222235
26500.000000  666.314900    0.003110   38.874936  -13.222235
27000.000000  681.748000    0.003110   38.874936  -13.222235
27500.000000  697.538500    0.003110   38.874936  -13.222235
28000.000000  713.694700    0.003110   38.874936  -13.222235
28500.000000  730.225200    0.003110   38.874936  -13.222235
29000.000000  747.138500    0.003110   38.874936  -13.222235
29500.000000  764.443700    0.003110   38.874936  -13.222235
30000.000000  782.149500    0.003110   38.874936  -13.222235
